easyblock = 'MakeCp'
name = 'mf2005'
version = '1.12.0'
homepage = 'https://en.wikipedia.org/wiki/MODFLOW'
description = """   is the U.S. Geological Survey modular finite-difference flow model, which is a computer code that solves the groundwater flow equation. The program is used by hydrogeologists to simulate the flow of groundwater through aquifers. """
toolchain = {'name': 'GCC', 'version': '8.3.0'}
source_urls = ['https://water.usgs.gov/water-resources/software/MODFLOW-2005/']
sources = ['MF2005.1_12u.zip']
checksums = ['323da8129c030fe06920e41c68f99fa7',  #MF2005.1_12u.zip 
]
parallel = 1
prebuildopts = "cd make && "
files_to_copy = [
(['make/mf2005'],'bin'),'doc']
sanity_check_paths = {
  'files': ['bin/mf2005'],
  'dirs': []
}

moduleclass = 'geo'


