easyblock = 'CMakeMake'

name = 'OpenFAST'
version = '4.1.2'

homepage = 'http://openfast.readthedocs.io/'

description = """OpenFAST is a wind turbine simulation tool which builds on FAST v8.
FAST.Farm extends the capability of OpenFAST to simulate multi-turbine wind farms"""

toolchain = {'name': 'foss', 'version': '2025a'}

source_urls = ['https://github.com/OpenFAST/openfast/archive/refs/tags/']
sources = ['v%(version)s.tar.gz']
checksums = ['940166d4a0d3c1349d8451c7080093f00711c2be38cbf28f2452912b46e52c7a']

builddependencies = [
    ('CMake', '3.31.3'),
]

configopts = [
    "-DBUILD_SHARED_LIBS=ON -DBUILD_FASTFARM=ON -DOPENMP=ON",
]

sanity_check_paths = {
    'files': ['bin/openfast', 'bin/FAST.Farm',
              'lib/libopenfastlib.%s' % SHLIB_EXT],
    'dirs': ['include/openfast'],
}

sanity_check_commands = [
    "openfast -h",
    "openfast  -v | grep --silent 'OpenMP: Yes'"
]

moduleclass = 'cae'
